Version 4
SHEET 1 880 680
WIRE 96 80 -64 80
WIRE -64 128 -64 80
WIRE 32 176 -64 176
WIRE -112 208 -240 208
WIRE -240 240 -240 208
WIRE -64 256 -64 224
WIRE 32 256 32 176
WIRE 32 256 -64 256
WIRE -64 320 -64 256
FLAG -240 320 0
FLAG -64 400 0
FLAG 96 160 0
SYMBOL voltage -240 224 R0
WINDOW 3 24 44 Left 2
WINDOW 123 0 0 Left 0
WINDOW 39 0 0 Left 0
SYMATTR Value {VGIN}
SYMATTR InstName V3
SYMBOL pmos4 -112 128 R0
SYMATTR InstName M1
SYMATTR Value2 l=0.3204u w=17.8u
SYMBOL voltage -64 304 R0
WINDOW 123 0 0 Left 0
WINDOW 39 0 0 Left 0
WINDOW 3 24 44 Left 2
SYMATTR Value 1.8
SYMATTR InstName V_S
SYMBOL voltage 96 64 R0
WINDOW 123 0 0 Left 0
WINDOW 39 0 0 Left 0
SYMATTR InstName V_D
SYMATTR Value ""
TEXT -440 32 Left 2 !.include C:\\Users\\parth\\AppData\\Local\\LTspice\\lib\\sub\\tsmc018.lib
TEXT -440 424 Left 2 !.dc V_D 0 1.8 0.01
TEXT -440 472 Left 2 !.step param VGIN 0 1.8 0.3
